LAMMPS (5 Jun 2019)
package omp 1
using multi-threaded neighbor list subroutines

atom_style full
units real

# Define parameters
# T and srate are passed by command line
variable DT equal 0.5 # time step [fs]
#variable	srate equal 2e-7 # shear rate [1/fs]
variable fname string 298K-srate=10e-7.txt

# read restart file from previous equilibrium run
read_restart    pec6_125.equi298K
  restoring atom style full from restart
  orthogonal box = (23.9525 23.9525 23.9525) to (72.0475 72.0475 72.0475)
  restoring pair style lj/cut/coul/long/omp from restart
  restoring bond style harmonic/omp from restart
  restoring angle style harmonic/omp from restart
  restoring dihedral style opls/omp from restart
  restoring improper style harmonic/omp from restart
  11125 atoms
  11000 bonds
  20750 angles
  28000 dihedrals
  500 impropers
  read_restart CPU = 0.323153 secs
neigh_modify	delay 0 every 1

# initialization
bond_style harmonic
angle_style harmonic
dihedral_style opls
improper_style harmonic
pair_style lj/cut/coul/long 12.0 12.0
pair_modify tail yes mix geometric
special_bonds lj/coul 0.0 0.0 0.5

# force field parameters, ff is passed by command line
include    pec6.lopls2015.settings
  pair_coeff 1 1 0.066 3.5
  pair_coeff 2 2 0.015 2.42
  pair_coeff 3 3 0.066 3.5
  pair_coeff 4 4 0.066 3.5
  pair_coeff 5 5 0.066 3.5
  pair_coeff 6 6 0.03 2.5
  pair_coeff 7 7 0.026290630975 2.5
  pair_coeff 8 8 0.105 3.1875
  pair_coeff 9 9 0.168 3.108
  pair_coeff 10 10 0.17 2.55
  bond_coeff 1 570.0 1.229
  bond_coeff 2 317.0 1.522
  bond_coeff 3 214.0 1.327
  bond_coeff 4 268.0 1.529
  bond_coeff 5 320.0 1.41
  bond_coeff 6 340.0 1.09
  angle_coeff 1 80.0 120.4
  angle_coeff 2 81.0 111.4
  angle_coeff 3 83.0 123.4
  angle_coeff 4 58.35 112.7
  angle_coeff 5 63.0 111.1
  angle_coeff 6 50.0 109.5
  angle_coeff 7 33.0 107.8
  angle_coeff 8 35.0 109.5
  angle_coeff 9 35.0 109.5
  angle_coeff 10 37.5 110.7
  angle_coeff 11 83.0 116.9
dihedral_coeff 1 -0.00000 -0.00000 -0.00000 0.00000
dihedral_coeff 2 -0.00000 0.00000 0.30000 0.00000
dihedral_coeff 3 -0.00000 0.00000 0.30000 0.00000
dihedral_coeff 4 0.00000 0.00000 0.19800 0.00000
dihedral_coeff 5 0.64470 -0.21434 0.17822 0.00000
dihedral_coeff 6 3.11924 5.73771 -0.00000 0.00000
dihedral_coeff 7 -0.00000 5.73772 -0.00000 0.00000
dihedral_coeff 8 -0.00742 0.00218 0.11181 0.00000
dihedral_coeff 9 -1.73540 -1.24844 0.62389 0.00000
dihedral_coeff 10 0.88498 -0.62690 -0.49334 0.00000
dihedral_coeff 11 -0.27601 1.23685 -0.67075 0.00000
dihedral_coeff 12 -0.00213 0.01735 -0.29521 0.00000
dihedral_coeff 13 -2.30739 -0.62733 0.62195 0.00000
dihedral_coeff 14 2.25871 -1.02408 1.00710 0.00000
  improper_coeff 1 10.5 180.0
  set type 1 charge 0.0
  125 settings made for charge
  set type 2 charge 0.03
  1000 settings made for charge
  set type 3 charge 0.19
  500 settings made for charge
  set type 4 charge -0.222
  500 settings made for charge
  set type 5 charge -0.148
  2000 settings made for charge
  set type 6 charge 0.074
  1500 settings made for charge
  set type 7 charge 0.074
  4000 settings made for charge
  set type 8 charge 0.75
  500 settings made for charge
  set type 9 charge -0.55
  500 settings made for charge
  set type 10 charge -0.45
  500 settings made for charge

change_box all triclinic
  triclinic box = (23.9525 23.9525 23.9525) to (72.0475 72.0475 72.0475) with tilt (0 0 0)
kspace_style pppm 0.0001 # must redefine pppm after changing to triclinic

timestep 0.5
reset_timestep	0
#run_style respa 2 4

# CORE part of NEMD simulation; using SLLOD algorithm.

fix		nemd1 all nvt/sllod temp $T $T $(100*dt)
fix		nemd1 all nvt/sllod temp 298 $T $(100*dt)
fix		nemd1 all nvt/sllod temp 298 298 $(100*dt)
fix		nemd1 all nvt/sllod temp 298 298 50
fix		nemd2 all deform 1 xy erate 10e-7 remap v

compute		usual all temp
compute		tilt  all temp/deform
compute     tiltp all pressure tilt

#compute         layers all chunk/atom bin/1d y center 0.05 units reduced
#fix		4 all ave/chunk 100 250 25000 layers vx file velocity.txt

# data gathering
variable        stress equal (-1)*c_tiltp[4]  # -pxy
variable        h1 equal c_tiltp[1]  # pxx
variable        h2 equal c_tiltp[2]  # pyy
variable        h3 equal c_tiltp[3]  # pzz
variable        h4 equal c_tiltp[4]  # pxy
variable        h5 equal c_tiltp[5]  # pxz
variable        h6 equal c_tiltp[6]  # pyz
variable	visc equal 101325e-12*v_stress/(v_srate) # shear viscosity [mPa s]; first term is unit converter

fix		viscave all ave/time 10 1000 10000 v_visc ave running start 10000 file 298K-srate=10e-7.txt

thermo 10000
thermo_style	custom step temp press pxy v_visc f_viscave
thermo_modify	temp tilt
thermo_modify   press tiltp

# only need to run for 5400 steps to make a good 100-frame movie
# set 54K steps above in equil and 5400 here simply to make good movie
# 54K and 5400 are multiples of box-swap periodicity = 2700 steps

#dump myDump all atom 10000 pec6.lammpstrj

#dump	        1 all custom 50 dump.nemd.2d id type x y z vx

#dump		2 all image 50 image.*.jpg vx type zoom 1.2 adiam 1.2

restart 1000000 298K.restart.A 298K.restart.B
run		50000000
PPPM initialization ...
  G vector (1/distance) = 0.196002
  grid = 15 15 15
  stencil order = 5
  estimated absolute RMS force accuracy = 0.0198665
  estimated relative force accuracy = 5.98274e-05
  3d grid and FFT values/proc = 1000 135
No /omp style for force computation currently active
  update every 1 steps, delay 0 steps, check yes
Step Temp Press Pxy v_visc f_viscave
0    298.38095   -850.63985   -129.46948    13.118495            0
Averages over the last 2501 of 5001 rows, steps 25000000 to 50000000:
Temp Press Pxy v_visc f_viscave
297.968 96.5121 -269.123 27.2689 25.3518
Loop time of 294028 on 36 procs for 50000000 steps with 11125 atoms

write_restart restart.pec6
PPPM initialization ...
  G vector (1/distance) = 0.196002
  grid = 15 15 15
  stencil order = 5
  estimated absolute RMS force accuracy = 0.0198665
  estimated relative force accuracy = 5.98274e-05
  3d grid and FFT values/proc = 1000 135
No /omp style for force computation currently active
